162
xyz file written from pySIMM system module
H -5.408358792004278 -2.672858750209107 -5.610062524447498
C -5.845920304657957 -3.677816618143369 -5.55890877266675
C -4.7694400668902786 -4.6925079317115115 -5.369445013955491
C -3.620916424474861 -4.364767034130709 -4.64880039497485
C -4.911014020268865 -5.9691857111392235 -5.913136170072898
C -6.886852436540747 -3.720321968354769 -4.443240738699047
C -2.614103485289476 -5.313879755028607 -4.471866428426093
C -3.904147688309096 -6.918232017137066 -5.736149875016668
C -2.7557074029707405 -6.590600543707195 -5.015472423843032
H -6.3416514165695315 -3.8337519959646906 -6.525210134885927
H -3.499305090852649 -3.3741125292349405 -4.21877449405219
H -5.801622903412971 -6.237624881483516 -6.4751541138164015
H -7.658025046739251 -2.963332559697942 -4.617148445431712
H -6.429901927404742 -3.5230905910797934 -3.4676149313227955
H -1.7201459580131733 -5.058912993427205 -3.910307598111287
H -4.014561639964707 -7.912595940467661 -6.158942598769549
H -1.9719475414003282 -7.329677037078563 -4.877525092092789
C -7.571076513207423 -5.090808785650269 -4.3752975291127765
C -6.494596275439744 -6.105500099218412 -4.185833770401517
C -5.346072633024327 -5.777759201637609 -3.465189151420876
C -6.63617022881833 -7.382177878646123 -4.729524926518924
C -8.612008645090214 -5.13331413586167 -3.2596294951450733
C -4.339259693838942 -6.726871922535507 -3.2882551848721193
C -5.629303896858562 -8.331224184643967 -4.552538631462695
C -4.480863611520206 -8.003592711214095 -3.831861180289058
H -8.066807625118997 -5.2467441634715914 -5.341598891331953
H -5.2244612994021145 -4.787104696741841 -3.0351632504982162
H -7.526779111962437 -7.650617048990416 -5.291542870262428
H -9.383181255288719 -4.3763247272048424 -3.4335372018777384
H -8.155058135954208 -4.936082758586694 -2.2840036877688217
H -3.445302166562639 -6.471905160934105 -2.7266963545573133
H -5.739717848514172 -9.32558810797456 -4.975331355215576
H -3.697103749949794 -8.742669204585463 -3.693913848538815
C -9.296232721756889 -6.503800953157169 -3.191686285558802
C -8.21975248398921 -7.518492266725312 -3.002222526847543
C -7.071228841573792 -7.190751369144509 -2.2815779078669016
C -8.361326437367795 -8.795170046153023 -3.54591368296495
C -10.33716485363968 -6.54630630336857 -2.076018251591099
C -6.064415902388408 -8.139864090042407 -2.104643941318145
C -7.354460105408027 -9.744216352150868 -3.3689273879087205
C -6.206019820069672 -9.416584878720997 -2.6482499367350836
H -9.791963833668463 -6.659736330978491 -4.15798764777798
H -6.949617507951579 -6.200096864248741 -1.851552006944242
H -9.251935320511903 -9.063609216497316 -4.107931626708454
H -11.108337463838184 -5.789316894711742 -2.249925958323764
H -9.880214344503674 -6.349074926093594 -1.1003924442148474
H -5.170458375112105 -7.884897328441005 -1.543085111003339
H -7.464874057063637 -10.73858027548146 -3.7917201116616015
H -5.422259958499259 -10.155661372092364 -2.5103026049848407
C -11.021388930306355 -7.916793120664069 -2.008075042004828
C -9.944908692538675 -8.931484434232212 -1.8186112832935688
C -8.796385050123257 -8.60374353665141 -1.0979666643129273
C -10.086482645917261 -10.208162213659925 -2.3623024394109757
C -12.062321062189145 -7.95929847087547 -0.8924070080371248
C -7.789572110937874 -9.552856257549308 -0.9210326977641708
C -9.079616313957493 -11.157208519657768 -2.185316144354746
C -7.931176028619138 -10.829577046227897 -1.4646386931811093
H -11.517120042217929 -8.072728498485391 -2.9743764042240057
H -8.674773716501045 -7.613089031755641 -0.6679407633902678
H -10.977091529061369 -10.476601384004216 -2.9243203831544795
H -12.83349367238765 -7.202309062218642 -1.0663147147697898
H -11.60537055305314 -7.762067093600494 0.0832187993391268
H -6.895614583661571 -9.297889495947905 -0.3594738674493648
H -9.190030265613103 -12.15157244298836 -2.608108868107627
H -7.147416167048725 -11.568653539599264 -1.3266913614308664
C -12.74654513885582 -9.329785288170969 -0.8244637984508537
C -11.670064901088141 -10.344476601739114 -0.6350000397395946
C -10.521541258672723 -10.016735704158311 0.08564457924104686
C -11.811638854466727 -11.621154381166825 -1.1786911958570014
C -13.787477270738611 -9.37229063838237 0.2912042355168494
C -9.51472831948734 -10.965848425056208 0.26257854578980333
C -10.804772522506958 -12.570200687164668 -1.001704900800772
C -9.656332237168604 -12.242569213734797 -0.2810274496271351
H -13.242276250767395 -9.485720665992293 -1.7907651606700314
H -10.399929925050511 -9.026081199262542 0.5156704801637064
H -12.702247737610834 -11.889593551511116 -1.7407091396005052
H -14.558649880937116 -8.615301229725542 0.11729652878418441
H -13.330526761602606 -9.175059261107393 1.2668300428931012
H -8.620770792211037 -10.710881663454806 0.8241373761046094
H -10.915186474162569 -13.56456461049526 -1.424497624553653
H -8.87257237559819 -12.981645707106164 -0.14308011787689223
C -14.471701347405286 -10.742777455677869 0.35914744510312047
C -13.395221109637607 -11.757468769246014 0.5486112038143796
C -12.246697467222189 -11.42972787166521 1.2692558227950212
C -13.536795063016193 -13.034146548673725 0.004920047696972754
C -15.512633479288077 -10.78528280588927 1.4748154790708237
C -11.239884528036805 -12.378840592563108 1.4461897893437776
C -12.529928731056424 -13.983192854671568 0.18190634275320228
C -11.38148844571807 -13.655561381241696 0.9025837939268391
H -14.96743245931686 -10.898712833499193 -0.6071539171160573
H -12.125086133599977 -10.439073366769442 1.6992817237176807
H -14.4274039461603 -13.302585719018015 -0.557097896046531
H -16.283806089486582 -10.028293397232442 1.3009077723381588
H -15.055682970152072 -10.588051428614293 2.4504412864470755
H -10.345927000760502 -12.123873830961706 2.0077486196585834
H -12.640342682712035 -14.97755677800216 -0.24088638099967874
H -10.597728584147657 -14.394637874613064 1.040531125677082
C -16.19685755595475 -12.155769623184769 1.5427586886570948
C -15.120377318187073 -13.170460936752914 1.7322224473683538
C -13.971853675771655 -12.84272003917211 2.4528670663489955
C -15.261951271565659 -14.447138716180625 1.1885312912509471
C -17.23778968783754 -12.19827497339617 2.658426722624798
C -12.965040736586271 -13.791832760070008 2.629801032897752
C -14.25508493960589 -15.396185022178468 1.3655175863071767
C -13.106644654267535 -15.068553548748596 2.0861950374808136
H -16.692588667866325 -12.311705001006093 0.5764573264379169
H -13.850242342149443 -11.852065534276342 2.8828929672716552
H -16.152560154709764 -14.715577886524915 0.6265133475074431
H -18.008962298036046 -11.441285564739342 2.484519015892133
H -16.780839178701534 -12.001043596121193 3.6340525300010498
H -12.071083209309968 -13.536865998468606 3.1913598632125577
H -14.3654988912615 -16.39054894550906 0.9427248625542954
H -12.322884792697122 -15.807630042119964 2.2241423692310565
C -17.922013764504214 -13.568761790691669 2.7263699322110693
C -16.84553352673654 -14.583453104259814 2.9158336909223284
C -15.69700988432112 -14.25571220667901 3.63647830990297
C -16.98710748011512 -15.860130883687525 2.372142534804922
C -18.962945896387005 -13.61126714090307 3.8420379661787725
C -14.690196945135737 -15.204824927576908 3.8134122764517264
C -15.980241148155356 -16.809177189685368 2.5491288298611514
C -14.831800862817001 -16.481545716255496 3.269806281034788
H -18.41774487641579 -13.724697168512993 1.7600685699918914
H -15.575398550698909 -13.265057701783242 4.066504210825629
H -17.87771636325923 -16.128570054031815 1.8101245910614177
H -19.73411850658551 -12.854277732246242 3.6681302594461074
H -18.505995387250998 -13.414035763628092 4.817663773555024
H -13.796239417859434 -14.949858165975506 4.374971106766532
H -16.090655099810967 -17.803541113015957 2.12633610610827
H -14.048041001246588 -17.220622209626864 3.4077536127850308
C -19.64716997305368 -14.981753958198569 3.9099811757650436
C -18.570689735286003 -15.996445271766714 4.099444934476302
C -17.422166092870583 -15.66870437418591 4.820089553456944
C -18.712263688664585 -17.273123051194425 3.555753778358896
C -20.68810210493647 -15.02425930840997 5.025649209732746
C -16.415353153685203 -16.617817095083808 4.9970235200057
C -17.70539735670482 -18.222169357192268 3.7327400734151257
C -16.556957071366465 -17.894537883762393 4.453417524588762
H -20.142901084965253 -15.137689336019893 2.9436798135458657
H -17.30055475924837 -14.678049869290142 5.2501154543796025
H -19.602872571808692 -17.541562221538715 2.993735834615392
H -21.459274715134974 -14.267269899753142 4.851741503000081
H -20.231151595800462 -14.827027931134992 6.0012750171089975
H -15.5213956264089 -16.362850333482406 5.558582350320505
H -17.81581130836043 -19.216533280522857 3.3099473496622442
H -15.773197209796054 -18.633614377133764 4.591364856339005
C -21.372326181603142 -16.394746125705467 5.093592419319017
C -20.295845943835467 -17.409437439273614 5.283056178030275
C -19.147322301420047 -17.08169654169281 6.003700797010917
C -20.43741989721405 -18.68611521870132 4.73936502191287
C -22.413258313485933 -16.43725147591687 6.20926045328672
C -18.140509362234667 -18.030809262590704 6.180634763559674
C -19.430553565254286 -19.635161524699168 4.9163513169690995
C -18.28211327991593 -19.307530051269293 5.637028768142735
H -21.868057293514717 -16.550681503526793 4.127291057099839
H -19.025710967797835 -16.09104203679704 6.433726697933576
H -21.328028780358157 -18.954554389045615 4.177347078169365
H -23.184430923684438 -15.680262067260042 6.035352746554055
H -21.956307804349926 -16.240020098641892 7.184886260662971
H -17.246551834958364 -17.775842500989302 6.742193593874479
H -19.540967516909895 -20.629525448029757 4.493558593216218
H -17.498353418345516 -20.046606544640664 5.774976099892978
H -22.901989796819272 -17.416170631127937 6.257791317276913
