162
xyz file written from pySIMM system module
H 3.818699878062686 3.1471761768179585 -0.8038462609461798
C 3.3401199238519923 2.1972810009465693 -1.0734338761734976
C 2.0479004378891457 2.05315561361484 -0.34288521056360455
C 1.291329419898945 3.183671769349478 -0.03404409225153904
C 1.5960171187922214 0.7878659969493154 0.031805410990172756
C 3.1612662374266973 2.1326893107809486 -2.5879967974196343
C 0.08283681791096931 3.0486898049034123 0.6494164993077796
C 0.38751191449688216 0.6529831977263714 0.7152632748448975
C -0.3691099707015324 1.7833900151689526 1.024030517145845
H 4.039267293454999 1.4136104384812578 -0.7558541143773463
H 1.6315850922760657 4.174874805831108 -0.32188182064167037
H 2.1751873341679815 -0.10090526650903087 -0.20432049371376199
H 4.128971339869739 2.2419268170062905 -3.08759468766675
H 2.502362405012142 2.9321324109329865 -2.9433644510527555
H -0.5065038347245125 3.9288116661629022 0.8893738590288687
H 0.03523326567759377 -0.3322919531552335 1.006531485676919
H -1.3101454442087448 1.6782291179441289 1.5559482488449552
C 2.5516710776764424 0.7929832647854849 -3.0176413420518946
C 3.4537055376909906 -0.27916830248696456 -2.5066329959933435
C 4.826199370071851 -0.04910759474552573 -2.410809873366272
C 2.924837592606381 -1.511898447856794 -2.1242398797393247
C 2.3728173912511483 0.7283915746198639 -4.532204263298031
C 5.669691041945721 -1.0519449550820625 -1.9326551827141045
C 3.76840795753612 -2.514675254949166 -1.6460970511097055
C 5.140846267550468 -2.2847219166717085 -1.5503473387341067
H 1.5705636274467025 0.7199508053688126 -2.5319480942346657
H 5.250836105412947 0.9064077604331482 -2.7070901275457064
H 1.8576113747646232 -1.7043514955553403 -2.19563991043064
H 1.706232664162548 1.5288269935556458 -4.868287573989466
H 3.331330383259612 0.8437729417656303 -5.049398312245383
H 6.738347028178877 -0.873047439320306 -1.8585843251362926
H 3.3567688697993097 -3.4748448151723963 -1.3488896873585101
H 5.797575936786728 -3.0656331683990006 -1.178289804916355
C 1.7632222315008947 -0.6113144713756002 -4.961848807930293
C 0.47100274553804633 -0.7554398587073274 -4.2313001423204
C -0.28556827245215466 0.3750762970273098 -3.9224590240083375
C 0.01911942644112008 -2.020729475372852 -3.856609520766624
C 1.5843685450756002 -0.675906161541221 -6.476411729176429
C -1.494060874440132 0.24009433258124524 -3.2389984324490197
C -1.1893857778542185 -2.1556122745957955 -3.1731516569119
C -1.946007663052633 -1.0252054571532145 -2.8643844146109543
H 2.4623696011038985 -1.394985033840911 -4.64426904613414
H 0.054687399924967295 1.3662793335089396 -4.210296752398469
H 0.5982896418168813 -2.9095007388311993 -4.092735425470558
H 2.552073647518643 -0.5666686553158798 -6.976009619423544
H 0.925464712661046 0.1235369386108165 -6.831779382809553
H -2.08340152707561 1.1202161938407347 -2.9990410727279317
H -1.5416644266735062 -3.140887425477401 -2.8818834460798786
H -2.8870431365598463 -1.1303663543780367 -2.332466682911845
C 0.9747733853253461 -2.0156122075366847 -6.906056273808692
C 1.8768078453398949 -3.087763774809134 -6.395047927750141
C 3.2493016777207564 -2.8577030670676957 -6.299224805123071
C 1.347939900255286 -4.320493920178965 -6.012654811496123
C 0.7959196989000511 -2.0802038977023054 -8.420619195054828
C 4.092793349594627 -3.860540427404234 -5.8210701144709045
C 2.1915102651850242 -5.3232707272713355 -5.534511982866504
C 3.563948575199374 -5.093317388993879 -5.438762270490905
H -0.006334064904392811 -2.0886446669533574 -6.420363025991462
H 3.6739384130618515 -1.9021877118890214 -6.595505059302505
H 0.28071368241352807 -4.512946967877511 -6.084054842187437
H 0.12933497181145093 -1.279768478766524 -8.756702505746262
H 1.7544326909085144 -1.9648225305565388 -8.93781324400218
H 5.161449335827781 -3.681642911642475 -5.7469992568930905
H 1.779871177448213 -6.283440287494566 -5.237304619115308
H 4.220678244435634 -5.87422864072117 -5.066704736673155
C 0.18632453914979752 -3.4199099436977694 -8.85026373968709
C -1.1058949468130508 -3.5640353310294977 -8.119715074077197
C -1.8624659648032527 -2.4335191752948617 -7.81087395576513
C -1.5577782659099748 -4.8293249476950235 -7.745024452523421
C 0.007470852724502541 -3.48450163386339 -10.364826660933227
C -3.0709585667912296 -2.5685011397409276 -7.1274133642058155
C -2.766283470205312 -4.964207746917968 -7.061566588668697
C -3.5229053554037284 -3.833800929475389 -6.752799346367749
H 0.885471908752802 -4.20358050616308 -8.532683977890938
H -1.5222102924261316 -1.442316138813232 -8.098711684155264
H -0.9786080505342132 -5.71809621115337 -7.981150357227355
H 0.9751759551675454 -3.375264127638048 -10.86442455118034
H -0.6514329796900533 -2.685058533711353 -10.720194314566351
H -3.660299219426707 -1.68837927848144 -6.887456004484725
H -3.118562119024599 -5.949482897799574 -6.770298377836675
H -4.463940828910939 -3.938961826700213 -6.22088161466864
C -0.6021243070257515 -4.824207679858854 -10.79447120556549
C 0.2999101529887982 -5.896359247131303 -10.283462859506939
C 1.6724039853696593 -5.666298539389865 -10.187639736879868
C -0.2289577920958119 -7.1290893925011325 -9.90106974325292
C -0.7809779934510465 -4.888799370024475 -12.309034126811627
C 2.5158956572435294 -6.669135899726402 -9.709485046227703
C 0.6146125728339262 -8.131866199593505 -9.422926914623304
C 1.9870508828482745 -7.901912861316048 -9.327177202247706
H -1.5832317572554901 -4.897240139275527 -10.30877795774826
H 2.0970407207107535 -4.7107831842111905 -10.483919991059304
H -1.2961840099375692 -7.32154244019968 -9.972469773944235
H -1.4475627205396455 -4.088363951088693 -12.645117437503059
H 0.1775349985574166 -4.773418002878708 -12.82622817575898
H 3.584551643476683 -6.490238383964644 -9.635414188649888
H 0.20297348509711588 -9.092035759816733 -9.125719550872107
H 2.643780552084535 -8.682824113043338 -8.955119668429953
C -1.3905731532012997 -6.228505416019939 -12.738678671443889
C -2.682792639164148 -6.372630803351669 -12.008130005833996
C -3.4393636571543507 -5.242114647617033 -11.699288887521929
C -3.1346759582610693 -7.637920420017192 -11.633439384280221
C -1.5694268396265942 -6.293097106185559 -14.253241592690026
C -4.647856259142326 -5.3770966120631005 -11.015828295962615
C -4.343181162556407 -7.772803219240142 -10.949981520425496
C -5.0998030477548255 -6.642396401797562 -10.641214278124549
H -0.6914257835982949 -7.0121759784852475 -12.421098909647737
H -3.0991079847772305 -4.250911611135404 -11.987126615912063
H -2.5555057428853094 -8.52669168347554 -11.869565288984154
H -0.6017217371835528 -6.183859599960216 -14.752839482937139
H -2.228330672041151 -5.493654006033524 -14.60860924632315
H -5.237196911777808 -4.496974750803613 -10.775870936241523
H -4.6954598113756925 -8.758078370121748 -10.658713309593475
H -6.0408385212620335 -6.747557299022386 -10.109296546425439
C -2.1790219993768467 -7.632803152181023 -14.682886137322289
C -1.2769875393622985 -8.704954719453475 -14.171877791263737
C 0.0955062930185635 -8.474894011712035 -14.076054668636663
C -1.8058554844469077 -9.9376848648233 -13.789484675009719
C -2.357875685802142 -7.697394842346644 -16.197449058568424
C 0.9389979648924314 -9.47773137204857 -13.597899977984502
C -0.9622851195171718 -10.940461671915674 -13.311341846380099
C 0.41015319049717913 -10.710508333638217 -13.2155921340045
H -3.1601294496065866 -7.705835611597696 -14.19719288950506
H 0.5201430283596569 -7.519378656533362 -14.3723349228161
H -2.873081702288665 -10.13013791252185 -13.860884705701034
H -3.0244604128907406 -6.896959423410863 -16.533532369259856
H -1.3993626937936798 -7.582013475200879 -16.714643107515776
H 2.0076539511255858 -9.298833856286816 -13.523829120406683
H -1.3739242072539835 -11.900631232138903 -13.014134482628906
H 1.0668828597334352 -11.491419585365506 -12.843534600186748
C -2.967470845552394 -9.037100888342108 -16.627093603200684
C -4.259690331515243 -9.18122627567384 -15.896544937590793
C -5.016261349505444 -8.050710119939204 -15.587703819278723
C -4.711573650612159 -10.446515892339363 -15.521854316037015
C -3.1463245319776894 -9.101692578507729 -18.14165652444682
C -6.224753951493418 -8.185692084385273 -14.904243227719409
C -5.920078854907496 -10.581398691562317 -14.83839645218229
C -6.6767007401059155 -9.450991874119737 -14.529629209881342
H -2.2683234759493867 -9.820771450807417 -16.309513841404534
H -4.676005677128326 -7.059507083457577 -15.875541547668856
H -4.132403435236398 -11.335287155797712 -15.75798022074095
H -2.1786194295346473 -8.992455072282382 -18.641254414693933
H -3.805228364392248 -8.302249478355694 -18.497024178079943
H -6.814094604128901 -7.3055702231257875 -14.664285867998313
H -6.27235750372678 -11.566673842443922 -14.547128241350272
H -7.617736213613122 -9.556152771344564 -13.997711478182232
C -3.7559196917279403 -10.441398624503192 -18.57130106907908
C -2.8538852317133916 -11.513550191775643 -18.06029272302053
C -1.4813913993325292 -11.283489484034199 -17.96446960039346
C -3.3827531767979986 -12.746280337145468 -17.677899606766513
C -3.9347733781532375 -10.505990314668813 -20.085863990325215
C -0.6378997274586613 -12.286326844370734 -17.486314909741296
C -2.5391828118682644 -13.749057144237842 -17.199756778136894
C -1.1667445018539127 -13.519103805960384 -17.104007065761298
H -4.737027141957681 -10.514431083919863 -18.085607821261853
H -1.0567546639914385 -10.327974128855528 -18.260749854572893
H -4.449979394639759 -12.938733384844017 -17.749299637457824
H -4.601358105241835 -9.70555489573303 -20.421947301016647
H -2.976260386144774 -10.390608947523045 -20.603058039272568
H 0.4307562587744931 -12.10742932860898 -17.412244052163473
H -2.950821899605076 -14.70922670446107 -16.9025494143857
H -0.5100148326176601 -14.30001505768767 -16.731949531943542
H -4.370198492260559 -11.462923204665572 -20.39275295077683
