600
xyz file written from pySIMM system module
O -7.64846901351 -8.27477414561 8.08172877245
O -9.63131061334 -9.2595045232 8.51504915798
C -9.43817177266 -6.85253174593 8.74683219606
C -10.9678381266 -6.69918424343 8.65084867222
C -8.93837243378 -8.27910610947 8.49202659874
C -9.0266744931 -6.59666329025 10.2034664259
C -7.24106865478 -9.36209235839 7.2387403979
H -11.1825408837 -5.6530478239 8.41738835766
H -11.4457388487 -7.33742562003 7.91186398118
H -11.4245022898 -6.94133847812 9.59332139848
H -8.43541129915 -5.70804964055 10.4070760422
H -9.44538897055 -7.1697661748 11.0396388052
H -7.34681583061 -10.2903638786 7.77895727564
H -6.20058553743 -9.17946953233 6.95693142784
H -7.90004588402 -9.43034593837 6.37159788909
O -10.2414703264 -3.63503870389 6.30538221424
O -8.03537342404 -3.35200421285 6.3173431525
C -8.91574819815 -5.60904584499 6.35976655393
C -7.56037325745 -6.01850293265 5.78326550063
C -8.99004333329 -4.08638762573 6.13451000463
C -8.78487812131 -5.68408462152 7.93574054073
C -10.4378308239 -2.20869930855 6.32501495776
H -7.47865359349 -5.68415220258 4.75185914121
H -6.762632012 -5.52354565179 6.32626261549
H -7.40246568697 -7.0849997753 5.86622480365
H -9.2484630507 -4.76922049352 8.32384384773
H -7.74736335916 -5.54609503699 8.25314260079
H -11.507766699 -2.04440301702 6.31772346095
H -9.97205632768 -1.76285608284 5.4534256647
H -9.97258209756 -1.73881766229 7.1837169629
O -9.31825118485 -7.78084183513 2.32841457606
O -8.59796690744 -8.59754925033 4.30770367976
C -10.3453240968 -6.89958853499 4.27483562111
C -10.484485082 -5.53405456399 3.50277342566
C -9.23579542087 -7.78000192932 3.67754719523
C -10.1115530408 -6.5250632325 5.78808140196
C -8.56016451749 -8.6924999588 1.50091983403
H -9.52696738598 -5.05344465294 3.26903768485
H -10.9641012454 -5.63182239658 2.53589353561
H -11.1626573162 -4.86314018133 4.0454613142
H -11.050311735 -6.07206630014 6.07478086753
H -10.0470067569 -7.47430275203 6.29610325649
H -8.84770279873 -9.71338114017 1.72697988379
H -7.48702515513 -8.56151407225 1.65831972125
H -8.81823377798 -8.48955511658 0.458155715621
O -14.4576881678 -9.59422490313 5.71911907155
O -13.202535927 -7.87195809521 6.40553292239
C -12.3087027126 -9.09708381423 4.52082589205
C -11.2608757445 -9.91887452178 5.32517508301
C -13.3307731963 -8.8393530516 5.65879183769
C -11.7677524768 -7.63446230765 3.99588890544
C -15.7185381226 -9.05237036389 6.24547236157
H -11.7778362381 -10.7949338861 5.72002278237
H -10.3803422365 -10.264334729 4.78964161077
H -10.9013189654 -9.36471621068 6.18727751823
H -11.8922502501 -7.57189218938 2.92270982621
H -12.5258052052 -6.90371013149 4.27554801804
H -16.2191233174 -8.45025938368 5.48120534417
H -15.5703152039 -8.43751855316 7.13827887238
H -16.3911635104 -9.87044549248 6.50413461099
O -10.2800640561 -11.5096202273 1.97448226735
O -11.5508274531 -12.3111425537 3.62772297592
C -12.5953651249 -10.6952790115 2.15904245767
C -12.0796445836 -9.59020151818 1.18897771389
C -11.4475496872 -11.6083322223 2.65262660727
C -13.1353522233 -10.0452572917 3.47925919423
C -9.19185874346 -12.2445987665 2.57092505935
H -12.7658991199 -8.76157696467 0.99434631384
H -11.2802118952 -9.14593659436 1.74969273708
H -11.6469918452 -9.92599330944 0.238101840013
H -14.0495246296 -9.54410411953 3.19825213066
H -13.4707253906 -10.9177706436 4.04630091736
H -9.5128971273 -13.2661117197 2.74014057903
H -8.95702268664 -11.7824017175 3.53435988824
H -8.34202056327 -12.2529110447 1.89916476979
O -16.3298215975 -12.6031499704 2.82698794379
O -16.4538360161 -10.3707694646 3.03465760561
C -15.2270732519 -11.207914125 1.12560234801
C -15.9342080037 -12.2810721604 0.23778701496
C -16.0364356568 -11.3294379418 2.43107180618
C -13.7215900516 -11.6660718256 1.50697644786
C -17.3078891436 -12.7771873429 3.8742855157
H -15.7545667504 -12.2419734058 -0.835937334238
H -15.6961917859 -13.2895711209 0.576944711984
H -17.0114462957 -12.1558835337 0.39279943904
H -13.2804102561 -12.080969539 0.609285538802
H -13.8083517049 -12.5446489827 2.16581901427
H -16.964874251 -12.2569804644 4.77128586746
H -17.4184181424 -13.8389335497 4.10818371742
H -18.2684654338 -12.3443715859 3.56838802153
O -14.784878196 -7.18902611859 -0.287161828488
O -15.9304877968 -7.48175066376 -2.1817432458
C -16.4433315833 -8.96904569427 -0.298070835938
C -17.1333613734 -9.77621975844 -1.4437741776
C -15.7918579189 -7.73964172477 -0.998054799672
C -15.2378330091 -9.75890319937 0.431452127792
C -13.8846329108 -6.14973813054 -0.744630342702
H -17.6288971311 -10.6803929983 -1.10485533444
H -17.9056371499 -9.21607286468 -1.99752169054
H -16.3478403079 -10.0400650449 -2.14547180422
H -14.9082991127 -9.11025214518 1.22351703408
H -14.4159993485 -9.72624116536 -0.292282563356
H -14.3880165483 -5.25892118552 -1.13127578893
H -13.2116376661 -6.53781550857 -1.50430991462
H -13.3115434999 -5.86818206846 0.139844276534
O -18.2988612223 -6.10832628162 -0.419895286603
O -16.5913718486 -5.21074202391 0.719367319569
C -17.5186396906 -7.26252895173 1.60859291629
C -16.2449817091 -7.19207189366 2.51654842753
C -17.4852214302 -6.02486313135 0.67201220422
C -17.6053485405 -8.55226251338 0.688638974078
C -18.0570364016 -5.11136507635 -1.44096721476
H -16.0830895805 -8.0018802961 3.21395664293
H -15.3884439233 -7.14983002495 1.88016295072
H -16.1668729517 -6.29292643788 3.11067152854
H -18.5250559253 -8.40665773177 0.107074698898
H -17.8295710993 -9.44711102656 1.2549413351
H -17.8896388836 -4.18465399588 -0.907993121487
H -18.9235415869 -4.96817356546 -2.09256010134
H -17.1403043527 -5.35041449112 -1.99236481103
O -19.8347201323 -7.72525264661 5.17095623271
O -20.2124527486 -5.55289389861 5.53206594308
C -19.2731595964 -6.06636894491 3.36980687364
C -18.1967484275 -4.93357871802 3.6268107024
C -19.8053876443 -6.42490395659 4.78300562
C -18.8043135137 -7.33871941124 2.5303260793
C -20.2612625597 -8.00613545174 6.53860393474
H -18.6283882716 -3.98636462222 3.9708300774
H -17.4852052286 -5.25835564961 4.37800866111
H -17.6076485651 -4.62720833616 2.77230331886
H -19.6390493635 -7.65096435726 1.90098400428
H -18.7175875724 -8.2196540975 3.17667259094
H -20.7750124792 -8.96706518281 6.59329726662
H -20.9987825952 -7.28124807194 6.88495577384
H -19.4022958122 -7.96279747465 7.22077070666
O -21.2720943685 -6.28321675238 -0.0445247829365
O -23.2891827853 -6.97903603925 0.665947692214
C -21.7126716456 -6.13886223563 2.29106902981
C -22.6921153043 -6.28237282611 3.48435714558
C -22.2635552088 -6.34989965009 0.86608402139
C -20.3945090748 -5.31788547048 2.56619452676
C -21.4305580831 -6.13815386026 -1.48047226729
H -23.6119062079 -5.73186452987 3.29200254547
H -22.9085032778 -7.32081928246 3.75378542644
H -22.2674720052 -5.85483406345 4.38083435087
H -20.6555267327 -4.42427462832 3.13765858154
H -19.9595250553 -4.94530167224 1.636293538
H -21.4535434072 -5.07002884712 -1.68396222382
H -22.3396749024 -6.56652605915 -1.91019407511
H -20.535015689 -6.5895820136 -1.92841677942
O -0.161209648378 1.50793752996 -0.199331247545
O -1.58015833657 0.116575435116 0.881117771906
C 0.538895209758 -0.760882810101 0.187165820327
C 0.399316161383 -1.22263489236 -1.26289059826
C -0.556474797184 0.297400647185 0.275710943578
C 0.198529103021 -1.97350957087 1.10103434226
C -0.438368062434 2.62840562875 0.666721824519
H 0.643936681993 -0.434539479226 -1.98229402908
H 1.02992290895 -2.08015815534 -1.38899201638
H -0.605134125373 -1.56904655864 -1.47485082854
H 0.17817742511 -1.74097743752 2.17136991876
H -0.758438910653 -2.42099648792 0.815368207133
H 0.465984674771 2.83842729571 1.23472046177
H -1.22186505571 2.36726617712 1.38097845017
H -0.708558995327 3.5125527746 0.084793737353
O 3.84413407588 -3.17170386755 1.79143780909
O 2.91469078642 -1.50334625649 2.98992261334
C 3.22663158613 -1.14565529576 0.595361079338
C 3.34913409284 -2.01598351048 -0.655671367858
C 3.18753487471 -1.98016219339 1.90772106204
C 1.98235397911 -0.170837366543 0.442478572563
C 3.63374420664 -4.17597959419 2.8173210198
H 2.94752454911 -1.42318348308 -1.47011294914
H 4.3676221632 -2.19271636956 -0.945345948285
H 2.84671328217 -2.98640534653 -0.559795834378
H 2.20358071716 0.491854796631 -0.402573716884
H 1.90084785466 0.447783969724 1.33624091698
H 3.86908194147 -3.76773498412 3.79962389727
H 4.26645458661 -5.05120930237 2.65754331631
H 2.5893985744 -4.48782611827 2.76859870524
O 5.25380592582 2.59327310851 -1.4869793599
O 3.76711654548 2.2466882038 0.161887883557
C 5.4050700323 0.484243142432 -0.255695562772
C 5.78857536595 -0.192138843054 -1.61523822406
C 4.6933663582 1.84582151179 -0.494448537322
C 4.58799336482 -0.387952021825 0.76582768001
C 4.68551741351 3.89622588389 -1.81795421114
H 4.97094588905 -0.433128367759 -2.28863240084
H 6.53335935298 0.412474193248 -2.15193951096
H 6.24772631501 -1.15104042999 -1.4168610725
H 4.43513204757 0.213095544309 1.65987507991
H 5.3085102384 -1.17503372485 0.963823991346
H 3.59440590139 3.84252751559 -1.87587411154
H 5.05363406913 4.17820845969 -2.80143838565
H 4.99699830856 4.66537185429 -1.10584233394
O 5.93340829774 1.84796584274 3.88170615254
O 5.7524155298 2.86469068841 1.89485881128
C 7.11762066471 0.86509629865 1.92927420803
C 7.0864900169 -0.518298416218 2.65766847576
C 6.10350332656 1.88647366538 2.52829139649
C 6.87788810465 0.636008701827 0.364792848635
C 4.84818685184 2.60478230708 4.55291061959
H 7.65690615271 -0.519914092651 3.57918866644
H 6.07472797368 -0.72712039115 2.97841578907
H 7.47833468486 -1.35230021529 2.05053448657
H 7.37142283894 1.37814581327 -0.248737998989
H 7.43814946378 -0.288941357891 0.155355486408
H 4.54572617397 3.50342588419 4.00940765606
H 5.13019767735 2.90286081128 5.56996999826
H 3.96570090605 1.97084266138 4.6519489999
O 10.1446860942 -0.828606557999 2.83557972056
O 10.267929361 -0.829001947082 0.592030530168
C 9.87540343539 1.30119708411 1.67034191583
C 9.84655621681 2.00354309888 0.283149853148
C 10.1766913988 -0.202037067782 1.64352092299
C 8.49815320349 1.48895346526 2.37261896231
C 10.5229036363 -2.23119104023 2.88842905946
H 9.30135615938 2.94910500357 0.371004631121
H 10.8109998255 2.2591716388 -0.140741137599
H 9.42794205055 1.3643214112 -0.481683152422
H 8.64232049318 1.28679572382 3.44127368576
H 8.35386541723 2.54696359461 2.32248742463
H 9.899565201 -2.84574229338 2.22823354679
H 10.4562156208 -2.59925257071 3.91130843366
H 11.5552369722 -2.30236914376 2.55268493683
O 11.3684513192 4.49123099451 1.05308868116
O 13.5088115022 3.94132954322 0.676054998764
C 12.2809918593 2.50023873607 2.17387766285
C 12.8539168757 1.20899096337 1.53347946335
C 12.4392938947 3.67304502789 1.18202341279
C 10.8341956624 2.14243625961 2.62055757252
C 11.6084345943 5.72206413046 0.328038854832
H 12.3659358026 0.970777113182 0.585211377684
H 13.9204974124 1.30289458018 1.36272070894
H 12.7017978884 0.357976178136 2.20573098405
H 10.313775331 3.05393992718 2.91129586214
H 10.9925959406 1.58479287275 3.5294397741
H 12.3689865117 6.29175392885 0.84771452111
H 10.7058701696 6.33039464459 0.256682003661
H 12.0195213107 5.48513758826 -0.648457325799
O 11.8158334855 5.73992935241 3.70739274456
O 14.0635353223 5.75738507757 3.33209430602
C 13.0327053104 3.92431160409 4.48188384915
C 11.7426350507 3.7507565502 5.36735417366
C 13.0553739741 5.23077629048 3.73854438594
C 13.2556996401 2.75946762693 3.40078864807
C 11.5734060282 7.0955736979 3.38524682169
H 11.6592001378 4.5373435417 6.10114309427
H 10.7798875159 3.81252759443 4.84534103005
H 11.8166270679 2.86420171326 5.97834947478
H 13.4276492728 1.80572032496 3.91337720727
H 14.2129399201 2.97681768769 2.91390079566
H 12.0833475713 7.69323982114 4.13471360115
H 10.4940937741 7.19643251599 3.44938614218
H 11.9036383828 7.36310817917 2.38431153302
O 13.1597035267 5.30505052588 8.49197372098
O 13.0251090127 6.59685153131 6.65603590867
C 14.7252289012 4.86072999177 6.60608410037
C 15.7230227902 6.00954070986 6.23031222761
C 13.5264472914 5.63093905031 7.22338991485
C 14.3180589491 3.88413474417 5.39377679669
C 12.0792841113 6.0564013584 9.13391934889
H 15.3075254541 6.8469467085 5.65153113538
H 16.1378637652 6.42617773063 7.14976233554
H 16.5867357639 5.65084785157 5.71516165737
H 15.1662731483 3.82855355135 4.71453249075
H 14.1842735841 2.90652490677 5.83982731961
H 11.9565282658 5.77644864021 10.1836414261
H 11.140980684 5.82057080953 8.63329817803
H 12.2733621122 7.13359695319 9.05199456742
O 17.4256162335 1.8144314868 5.59162205373
O 15.5771740112 1.137668521 6.70530583576
C 16.7587039529 3.0786568494 7.53571521122
C 18.0796105388 3.81121041448 7.25888928909
C 16.4808767548 1.91024384028 6.56824254711
C 15.427072576 3.94236477721 7.70228874839
C 17.245593153 0.928166584154 4.46407149198
H 18.9068859443 3.08730970352 7.32038767278
H 18.1033954361 4.19294160105 6.27417735633
H 18.2363404528 4.64881903911 7.94652720169
H 15.615939856 4.57466174668 8.56216332275
H 14.6498320758 3.23019991472 7.98770029659
H 17.3984606091 -0.119500838414 4.73108354135
H 18.0041109459 1.22253899235 3.7375378685
H 16.2500986653 1.05035399301 4.02963905689
O 17.3852384247 0.684474346483 11.1466311194
O 19.1042635603 2.12764216785 11.4534534678
C 18.3001751253 1.63528331602 9.21657262365
C 17.9603262127 0.262136815187 8.58914380646
C 18.4060940354 1.45620745917 10.7238222482
C 17.0768686885 2.59674050248 8.98509485158
C 17.0511565956 0.592381162435 12.5235936852
H 16.8959214387 0.19176158281 8.73847803257
H 18.1371675954 0.135516471318 7.51424386252
H 18.4029168132 -0.573069865115 9.13397669354
H 17.2841311693 3.50843570062 9.54790878766
H 16.1872087964 2.19116295829 9.45525639973
H 15.9739506675 0.443455820784 12.5635795111
H 17.2946362642 1.54061824851 13.0006878357
H 17.5759607561 -0.254205402742 12.9684698643
O 3.34537273176 -4.15135502976 7.38031582567
O 2.05993525308 -4.43830616774 5.59054686062
C 1.01023306929 -4.53740290497 7.77336266364
C 0.895581038602 -3.19194737356 8.45997868779
C 2.19043081062 -4.48844997168 6.8046675381
C -0.248953584077 -4.75089108603 6.95654589126
C 4.56462994941 -4.42766283295 6.67840079684
H 0.790500569571 -2.4348269913 7.67916713694
H -0.00214080065041 -3.19499719576 9.07542854648
H 1.77479181812 -3.00865233395 9.08131252852
H -1.12452208479 -4.33558178217 7.44781417585
H -0.381809100193 -5.81637974562 6.78565015615
H 4.7490884662 -3.78047557481 5.80756365173
H 4.59309383639 -5.48733330927 6.41138232273
H 5.3071724606 -4.23588652209 7.43531567554
O -0.41977942959 -4.19635779405 11.7376443353
O 1.75415425959 -4.64371805488 11.4138066873
C 0.22534695527 -5.91997449077 10.0785835641
C -1.31356793229 -5.86088488246 9.7591118033
C 0.603381415608 -4.88301458854 11.158231897
C 1.22557599117 -5.65898275964 8.83544982061
C -0.132481537408 -3.18017220964 12.7477092898
H -1.60728224131 -6.29051330675 8.80180299018
H -1.87066267245 -6.39351297838 10.5269754213
H -1.70752534368 -4.84145641055 9.76515496779
H 1.28937801154 -6.56654440449 8.24422363346
H 2.25521616554 -5.49808153333 9.18414280493
H 0.0768319136088 -2.23119748763 12.2579670938
H 0.749663376003 -3.41075582999 13.3493490199
H -0.997605282609 -3.09923076138 13.4114779343
O -1.55076546082 -8.86388644991 9.94170784454
O -1.58970814234 -10.0540948723 11.85452407
C 0.0892741048352 -8.32807232125 11.6952996289
C -0.375823989312 -7.47715891053 12.9091855852
C -1.11866411027 -9.11536645368 11.1918329063
C 0.690573176638 -7.38335579594 10.5445243327
C -2.88943344082 -9.30470221858 9.6007227149
H -0.851295367166 -8.05783972623 13.7041283403
H 0.41091189668 -6.88747160692 13.3950273839
H -1.14012354709 -6.82853913614 12.5154321928
H 0.673268513755 -7.99022727832 9.64293030962
H 1.72498403867 -7.2546974898 10.8224642813
H -3.17642914734 -9.05531824309 8.58887139711
H -3.57422010012 -8.79838991371 10.2777891589
H -2.97398578269 -10.3837536179 9.7238624253
O 0.923959254984 -12.081960293 13.463446814
O 0.47367087868 -12.7456244108 11.3560261808
C 1.64508273765 -10.6454280898 11.5919401901
C 1.53591823125 -10.510108634 10.0331100915
C 0.826843332528 -11.8610550662 12.1119494203
C 1.16115947504 -9.32133267843 12.3459521991
C 0.581000402604 -13.4093156682 13.9346657491
H 2.02926418253 -11.2883160758 9.4467864494
H 0.508191657887 -10.4928281353 9.68009523697
H 1.98530491107 -9.57287879779 9.73105360487
H 0.743342326923 -9.69558981646 13.2862773898
H 1.99453707557 -8.69782955752 12.6735844632
H 1.36562933198 -14.101368477 13.6364354981
H -0.35209869989 -13.6699098164 13.4325312965
H 0.44177457784 -13.4635340973 15.0226431827
O 4.52233293262 -11.9195292169 9.4910879794
O 4.40403490849 -9.70008076261 9.14393668765
C 4.43818405128 -10.4700643094 11.4451460456
C 4.4875818747 -8.9002226296 11.6719958623
C 4.51129437983 -10.6442461342 9.9228890927
C 3.10138948651 -11.0550470769 12.045173682
C 4.44425198556 -12.0852130071 8.0640977745
H 3.73106039622 -8.36698216437 11.0831962236
H 4.2694423496 -8.61568649688 12.6921291344
H 5.43343541122 -8.42882136103 11.37877769
H 3.17475807194 -12.1463670202 11.9166987753
H 3.14423104464 -10.8895498589 13.1276457711
H 5.25135572181 -11.4935765875 7.62093738388
H 3.47001417952 -11.7036999548 7.73948597616
H 4.55106816591 -13.1376509718 7.80935327925
O 6.63033398154 -8.70462514344 13.55632428
O 5.67796211943 -10.3082665951 14.856428492
C 6.81553756567 -10.9297012924 12.8132467546
C 7.67297895834 -10.3808386527 11.6388873196
C 6.32597228771 -9.9610807897 13.8660275201
C 5.5094152681 -11.4701505407 12.1606749936
C 6.3840745582 -7.67379484498 14.4937540285
H 7.18183760601 -9.6802668694 10.9767935667
H 8.54274357756 -9.86802517156 12.0298276538
H 7.9580489031 -11.2113230736 10.9854725232
H 5.75722099317 -12.2884592878 11.4746918262
H 5.0497113408 -11.9851823407 13.0079597672
H 5.42299282185 -7.85653192326 14.9790034528
H 6.32632265665 -6.77143530837 13.890062296
H 7.22349690662 -7.66960525172 15.2010792315
O 9.37792465923 -14.1682270346 14.1959752858
O 9.21197739915 -12.977956346 16.098769237
C 9.17714865983 -11.8475027745 13.9748133059
C 9.99459670518 -12.0364244225 12.6429327801
C 9.46404744935 -13.0245594052 14.9119408916
C 7.62821156297 -12.0644709723 13.5827723552
C 8.87647563572 -15.3547075713 14.8237808567
H 10.2522076442 -11.1021276763 12.1590367441
H 10.8966622473 -12.6385523802 12.747781868
H 9.42260219557 -12.5836828917 11.9064228432
H 7.07208668728 -12.4797199143 14.4405612505
H 7.60647343193 -12.9151974765 12.9103269624
H 8.1093637387 -15.7825101395 14.1767106575
H 8.4408275106 -15.1139121064 15.7957640724
H 9.70281168495 -16.0521337815 14.9470824558
O 11.6399632729 -9.0235825408 12.4223845337
O 9.83573043228 -7.97542422031 13.2696443835
C 10.8345329725 -9.68895876047 14.6273756007
C 10.7093928232 -8.64842550105 15.7783212358
C 10.7209940103 -8.78003138775 13.394382449
C 9.48494777882 -10.5081571306 14.7861690956
C 11.2137688377 -8.69247499482 11.0840660712
H 9.71884117842 -8.19202955118 15.7780981143
H 10.8190976923 -9.06518149169 16.7776881024
H 11.3915314393 -7.82167505076 15.600310022
H 8.68516302807 -9.83334764033 14.5404406957
H 9.35340657508 -10.6555903891 15.8664459126
H 11.0197132741 -7.63078384338 10.9426378533
H 10.2938934762 -9.250405399 10.9229028416
H 11.9673769491 -8.97844004466 10.360305066
O 14.9521395643 -10.4229355363 17.0699661744
O 13.0069621551 -9.37829316507 17.2529173806
C 13.5755664257 -10.2379756394 15.0325491485
C 14.0962970979 -8.95396828129 14.3209572309
C 13.77599562 -9.99074958744 16.5519951996
C 12.1033541183 -10.6395412234 14.6165263584
C 15.1079332442 -10.5382381401 18.5162993985
H 14.387146065 -9.09213318491 13.2822716696
H 13.3262628793 -8.1928142444 14.3063222528
H 14.9855809094 -8.56646539957 14.8307956243
H 11.8715550666 -11.505273908 15.2198436758
H 12.1779144074 -11.0580609246 13.609591999
H 14.3237151918 -11.1843368978 18.885452382
H 15.0772694613 -9.56434945493 19.0115843962
H 16.0408051566 -11.0339262803 18.7808184297
O 14.6463103026 -13.692168142 12.9075472384
O 12.6677264394 -14.4444460368 13.7551707955
C 14.0457037056 -12.8429451414 15.0008669935
C 15.2547542659 -13.420791148 15.7719817394
C 13.6499134552 -13.7347253785 13.8180501238
C 14.4796684001 -11.4080571079 14.5314976115
C 14.7124311864 -14.5629701021 11.7785103913
H 15.0476435354 -14.3911723824 16.2182492143
H 16.1257017242 -13.5265212341 15.1450683254
H 15.5353792195 -12.7180441117 16.5525406994
H 14.5618655598 -11.3871479918 13.4435901374
H 15.4865573696 -11.1731885937 14.8579787966
H 15.0970560933 -15.5177576178 12.1175538869
H 15.3790964988 -14.1104033053 11.0416158904
H 13.7352531635 -14.683130671 11.3329439232
O -5.0428102659 -1.71507719991 -0.887389024634
O -3.0121894902 -2.48813633399 -1.53415963364
C -3.9620679153 -0.638233344301 -2.68154347983
C -5.16975044443 0.34052320842 -2.78337382013
C -3.95048420061 -1.73895660523 -1.66123067409
C -2.70240397726 0.188690159774 -2.32264711804
C -5.0749492456 -2.61494877168 0.217031906002
H -6.12300698079 0.0510894256821 -2.3340499681
H -4.8867360529 1.2811174128 -2.31254773175
H -5.36293634252 0.523703947857 -3.84487419469
H -2.8158038608 0.769527299683 -1.40288804684
H -2.5131290417 0.901040915476 -3.11020796532
H -4.50167601017 -2.15684516138 1.03197847101
H -4.67748766871 -3.59038727238 -0.0568404811925
H -6.12371609991 -2.75842332341 0.459829822437
O -3.09220939426 -1.99481463819 -6.46140728534
O -5.34435448571 -1.97658257938 -6.90280741017
C -4.51227053631 -2.46165534492 -4.68412242686
C -3.69190851568 -3.78329974153 -4.45413880077
C -4.40210472371 -2.14304412845 -6.15750507841
C -3.67113670168 -1.25372660241 -4.06420182338
C -2.59548676746 -1.11387567459 -7.45858350926
H -2.93901929452 -3.66603949705 -3.69226750204
H -4.25847712054 -4.62291103225 -4.09081369622
H -3.18650557085 -4.11855957351 -5.36795919134
H -3.70548754695 -0.395633439256 -4.7399252685
H -2.61921918052 -1.54022488973 -4.08109152411
H -1.50566664878 -1.22810444186 -7.46309312392
H -2.83967716259 -0.0823351292983 -7.20672749653
H -3.03740227712 -1.37704832563 -8.40985813097
O -6.02006930267 -4.60830958449 -6.67300845716
O -5.93840121468 -6.05879721743 -4.99850831129
C -6.88454565569 -3.88053916932 -4.46818831501
C -6.9887983118 -4.55889635592 -3.08700815543
C -6.30532231694 -4.98246392572 -5.40900288507
C -6.03559374093 -2.54154116922 -4.29268961161
C -4.93490842186 -5.33162981808 -7.30972930833
H -5.98680034656 -4.8480439322 -2.77504119443
H -7.44240265396 -3.94329925192 -2.31455045096
H -7.61434887639 -5.44493773308 -3.16576415235
H -6.0663417614 -2.30152617908 -3.2385338629
H -6.55755769869 -1.70014795917 -4.75761931035
H -4.55333704314 -4.71954173602 -8.12519096001
H -5.27823637745 -6.30611255263 -7.66494984293
H -4.13412016366 -5.48009640354 -6.57862553677
O -10.3114457719 -3.14717877872 -1.86742106109
O -10.2148126599 -4.8825524876 -3.28009615624
C -9.43199756931 -2.81900938535 -4.16861857651
C -8.87922888719 -1.45663097198 -3.61141248178
C -9.99575200815 -3.7053562561 -3.05801602151
C -8.33024147011 -3.59830305739 -5.00001979125
C -11.1091369404 -3.95428215884 -0.941606184164
H -8.02883190506 -1.5419572819 -2.93191888186
H -8.53848630111 -0.832416871157 -4.43129690793
H -9.64590400133 -0.888557892288 -3.09179496019
H -8.71450695671 -4.5977082857 -5.18658048075
H -8.22022172297 -3.13764156466 -5.96829421597
H -12.1437005403 -3.96818302225 -1.29767553767
H -11.0918289055 -3.55027736183 0.0711999288841
H -10.713890697 -4.97431997908 -0.896939772495
O -13.0729317778 -5.30166233175 -5.13377413918
O -12.8712807763 -3.61066503595 -3.64834405848
C -11.7404020575 -3.3971781015 -5.75975693101
C -11.1307289758 -4.43811635311 -6.73926136665
C -12.5371956599 -4.13852527642 -4.68855158113
C -10.6529546674 -2.4379246237 -5.13081830799
C -14.1747823167 -5.89639564196 -4.41811813362
H -10.2609048574 -4.07583664427 -7.29132798005
H -10.9055533535 -5.37785412261 -6.22838217624
H -11.8727203534 -4.71074032374 -7.48245543995
H -10.2840152041 -1.92912562124 -5.98903200078
H -11.2105038965 -1.70358398843 -4.57031419568
H -14.7379817157 -6.50660078896 -5.12021262023
H -14.8201207989 -5.08659125516 -4.08506963209
H -13.8646336557 -6.51327116295 -3.57323024484
O -13.8830967887 0.610878870707 -4.79908656435
O -14.2786110705 -1.52671316993 -4.36976065682
C -13.1500991009 -1.04837694051 -6.44216219671
C -14.3682886174 -0.765578661254 -7.32709228121
C -13.6778913977 -0.715311795782 -5.01948103237
C -12.8592045174 -2.60158514456 -6.5960131404
C -14.6926748516 1.09083628215 -3.67592350277
H -15.2970104207 -1.10377873802 -6.85611006079
H -14.4452991193 0.313144841004 -7.44898799478
H -14.2701970317 -1.29036058422 -8.27920608096
H -13.8066003198 -3.08395334661 -6.35181848419
H -12.7429992089 -2.78830372421 -7.67265002609
H -15.4010510569 1.83205788786 -4.02585546566
H -14.0862294 1.63487094029 -2.96341424904
H -15.2233073972 0.286142407963 -3.16344444394
O -12.416491119 0.187991330963 -9.85599958903
O -13.4288345333 2.14478458497 -9.24832585024
C -11.796001048 1.13366503094 -7.7578036625
C -12.1133307105 2.21879564399 -6.73972947087
C -12.6460144401 1.24165791466 -9.03082797098
C -11.8944655062 -0.238246199676 -6.96587162638
C -13.1813098831 -0.0920836843468 -11.0505715533
H -12.023687614 3.17827250766 -7.22569214231
H -13.1360501343 2.06867568095 -6.40742909475
H -11.4442667686 2.18307828628 -5.87305086202
H -11.3232798543 -0.0605619264427 -6.05213915709
H -11.3525667449 -0.92450263903 -7.61228396443
H -14.1377199575 0.428081975922 -11.0517256529
H -13.3671822314 -1.17140101895 -11.0548556018
H -12.6027425647 0.183347030975 -11.9380683232
O -9.48205241931 4.31121957689 -10.1687689214
O -10.3553453799 2.39458040503 -10.9591005242
C -9.44958315812 2.40414174281 -8.7383640916
C -9.24961664154 3.47890607259 -7.62044757747
C -10.021533759 3.06237291825 -10.008487395
C -10.2849970712 1.15449987962 -8.22022970968
C -9.53114761632 4.98188241083 -11.4501774603
H -9.2791950704 3.0723932327 -6.60200868365
H -8.30507210089 4.00263559374 -7.74815367127
H -10.0043363086 4.26671284747 -7.69084218812
H -10.214486097 0.412676307775 -9.02078426663
H -9.76338979716 0.775849205117 -7.34250315095
H -10.579093414 5.17248925626 -11.6792192316
H -9.05920173109 4.38207598229 -12.2334068156
H -8.98559600011 5.92738809976 -11.3910562726
O -8.19041206142 -0.771075599379 -8.72641421312
O -7.48797283868 -0.146033193348 -6.64448172509
C -6.93419957935 1.20704297081 -8.57086109564
C -6.28151911765 2.2118962297 -7.6104193509
C -7.4767400619 -0.0134955661752 -7.87057578041
C -8.07929574418 1.90765579308 -9.3891213443
C -8.6819686329 -2.02500650668 -8.28942266837
H -5.3514160501 1.7927467317 -7.2323430457
H -6.04829426688 3.14243368391 -8.12834490321
H -6.93404150829 2.4460311266 -6.77092320832
H -7.61635218603 2.76584419352 -9.87641541011
H -8.36672463873 1.24652723844 -10.2118521349
H -8.99950681886 -1.83408900128 -7.29917910226
H -7.87275091488 -2.75381471645 -8.3038834727
H -9.56600005391 -2.3623856705 -8.81958935253
O -5.24654674705 -2.12327009553 -11.8089648902
O -5.07143710928 -2.15721838797 -9.57366198158
C -6.24209458855 -0.317645447344 -10.5741639576
C -6.59837003736 0.231494265924 -11.9502971506
C -5.47074880516 -1.62418060768 -10.5762260401
C -5.77530591443 0.695737086057 -9.50837042506
C -4.49672742362 -3.34335142488 -11.8595996145
H -7.28221787139 -0.468311411191 -12.4309860359
H -7.08728990597 1.20382225537 -11.9501641113
H -5.65934891821 0.31393454493 -12.4905474754
H -5.01849144883 0.192098190089 -8.89155968974
H -5.24087518094 1.50962341272 -10.0018516681
H -3.54106756063 -3.1596719492 -11.3574401958
H -4.35399847894 -3.58031939739 -12.9091221528
H -5.03564614799 -4.16058605249 -11.3642193806
