110
xyz file written from pySIMM system module
C 2.25997593192 -4.40961351514 -3.26696823147
C 3.03180406789 -5.45490582852 -2.43553354782
H 1.41923278843 -4.90669864489 -3.75515708082
H 2.90856893943 -4.03999998248 -4.06317160718
H 3.98635750295 -5.05246170231 -2.08959143937
H 3.23974976409 -6.3426979255 -3.03806330016
C 0.628035620756 -3.67926085716 -1.45244387229
C -0.720070301098 -3.45802815504 -1.74761279426
C 0.961486010566 -4.34917122311 -0.269554742638
C -1.71794532402 -3.89769146855 -0.880494193712
C -0.0357890030726 -4.79750580403 0.594139110014
C -1.37616718441 -4.57193173728 0.289419896954
C 1.70115066357 -3.22030240106 -2.44127627856
C 2.83102173353 -2.37218518593 -1.79328197916
H -1.0017684413 -2.94927394842 -2.66633427947
H 2.00135652116 -4.54068274317 -0.021506003026
H -2.76306696962 -3.72207435325 -1.12292443572
H 0.233621706002 -5.33003243529 1.50393260428
H -2.15458857049 -4.926698767 0.960158147548
H 1.21368944652 -2.57630866575 -3.1764801036
H 3.55916704135 -2.10184165222 -2.5592503949
H 3.36788242537 -2.96969427254 -1.05395169278
C 1.66917885094 -0.0839574062589 -2.09835629424
C 2.34132876146 -1.07051897545 -1.10934588373
H 0.676802868417 -0.465108193796 -2.35044566744
H 2.23856744655 -0.0515375020275 -3.02869873272
H 3.21079334138 -0.593427572273 -0.650573725499
H 1.64937894387 -1.30673187614 -0.296712352446
C 2.84895444722 2.02831585812 -1.15427053079
C 3.97914939355 1.92330189135 -1.97463067927
C 2.93553293177 2.79084311755 0.0149753160101
C 5.16779818897 2.56368525122 -1.63051551071
C 4.12452573137 3.4312847707 0.359708646378
C 5.24270291465 3.31698379782 -0.462180199707
C 1.52096959836 1.34609429817 -1.50538288044
C 0.629998802079 2.2607201268 -2.39326069513
H 3.94416461405 1.34786230037 -2.89461543502
H 2.0692886684 2.89446851179 0.664543110344
H 6.03656203807 2.47737937224 -2.27817286875
H 4.17984033529 4.0202991671 1.27203322694
H 6.17038760032 3.81642452004 -0.193354697034
H 0.973464897314 1.22171550752 -0.567040226505
H -0.393137447919 1.87561978933 -2.3941904235
H 0.589261965584 3.25403816683 -1.93681574798
C 0.396357541764 3.53536242228 -4.60089913786
C 1.1151385273 2.39156129125 -3.85645633309
H -0.670157748147 3.49348556166 -4.36460192509
H 0.761928795596 4.48653736711 -4.20982264406
H 2.18342852537 2.60751918152 -3.86151234736
H 0.945157421156 1.44784338452 -4.3785775369
C -0.173129213189 4.74774507384 -6.71106053462
C -1.4549541342 4.63665770483 -7.25607451059
C 0.433777312779 6.00813530239 -6.66023312154
C -2.11310687382 5.76089066301 -7.75261154738
C -0.220033616716 7.13095419575 -7.16309243667
C -1.49369421767 7.00783861261 -7.71153092998
C 0.53904837247 3.5146939786 -6.15061090095
C 2.00180252136 3.4468057517 -6.68577974275
H -1.95127342488 3.67138499839 -7.29154822467
H 1.42391562237 6.12325945555 -6.22764167611
H -3.110253035 5.66270111036 -8.17530270086
H 0.26622081254 8.10314247592 -7.12801082518
H -2.00146173461 7.88367285157 -8.10943338602
H 0.0159456952506 2.62945709487 -6.52077005612
H 2.64862684978 4.10923779593 -6.10426964712
H 2.0006595387 3.82598132304 -7.71203937243
C 3.92777726428 2.00045436618 -7.54461752409
C 2.61345597562 2.02411636168 -6.72843875248
H 3.69169012483 1.93929882071 -8.60997188184
H 4.46221305802 2.94184930259 -7.38768678066
H 2.82847316558 1.67720693204 -5.72056603198
H 1.90069558848 1.32374125601 -7.1699964229
C 6.25371708852 0.993049770822 -7.76439206997
C 7.3993471555 0.975781118358 -6.96285744871
C 6.39667775337 1.10821580192 -9.15074171726
C 8.66528326456 1.07109330291 -7.53706060949
C 7.66239096551 1.21707251062 -9.72414900737
C 8.798190167 1.19621854129 -8.91752943363
C 4.87371278127 0.844481553899 -7.12289315686
C 4.25939103844 -0.553806789075 -7.41446923799
H 7.31167787346 0.865570255139 -5.88437812824
H 5.52114048794 1.10610952278 -9.79453663197
H 9.54917382008 1.04362212957 -6.90406550654
H 7.76278537971 1.30611587727 -10.8027161492
H 9.78656648362 1.27035002916 -9.36480642426
H 5.0060895774 0.942487271678 -6.04393179561
H 4.19628722837 -0.692447695168 -8.49647117487
H 3.23927966 -0.617537785785 -7.03084744275
C 4.87663598841 -1.84662749891 -5.27489569792
C 5.08750222253 -1.7133409609 -6.80545053113
H 3.87524353561 -2.24323316959 -5.09794527908
H 4.90102044174 -0.863759501763 -4.80228316264
H 4.78144589518 -2.64739849523 -7.28348883648
H 6.14310668404 -1.57471493823 -7.04135028586
C 7.29663085969 -2.05935123397 -4.49274217515
C 8.28170118451 -2.27684704393 -5.46223708143
C 7.56480405626 -1.16958545749 -3.44738592682
C 9.50817344379 -1.61918516307 -5.38583045241
C 8.78993742247 -0.509550481517 -3.37212919661
C 9.76266679863 -0.733355618988 -4.34244156168
C 5.9253208702 -2.73689601694 -4.55813547263
C 5.94641085069 -4.17722079285 -5.11759667524
H 8.09652666446 -2.94750891183 -6.29524462708
H 6.80987092881 -0.978740938102 -2.68819431838
H 10.2629208796 -1.78761759629 -6.14934069973
H 8.98457028984 0.183858688598 -2.55786946857
H 10.7162167805 -0.215175511677 -4.2885371021
H 5.58507950537 -2.84180898656 -3.5249255714
H 6.65384647541 -4.79400509511 -4.55784074075
H 6.22196172115 -4.20703961608 -6.17299179588
