60
xyz file written from pySIMM system module
C -3.45745828748 -0.350986656404 5.75523864645
C -2.96111383049 -1.66083502667 6.48293574658
H -4.52676740045 -0.203888811086 5.90362543718
H -3.30323213246 -0.528879352618 4.70209126021
H -3.77775308459 -2.25075692897 6.91156045949
H -2.373007468 -2.32139372412 5.83026807296
C -2.93703876811 2.19369295472 5.21137642187
C -2.70606492714 0.944381903769 6.17871720312
H -3.89547597179 2.10779818477 4.70799457964
H -2.93600052473 3.16467426622 5.71996240431
H -1.6578715396 0.705733419343 6.33430027002
H -3.08505693858 1.26949373002 7.13958890932
C -2.29341018234 1.42757282549 2.93290776705
C -1.90276816241 2.31632784241 4.12697816813
H -3.28015041267 0.964008153574 2.99415762563
H -2.39642271478 2.0877037408 2.07448533235
H -0.888776399308 2.17188546348 4.5299796117
H -1.94735023713 3.35271703991 3.77458102544
C -1.46464847892 -0.0643970762046 1.19220749425
C -1.30927092737 0.308716718211 2.6715830306
H -1.68763874411 0.83498055297 0.634909680542
H -0.461291000771 -0.280983844951 0.806687709663
H -1.54326070642 -0.541158462492 3.33170558474
H -0.301279618446 0.68344245551 2.8820853219
C -1.65989847307 -2.45505242181 0.834589428625
C -2.50629039777 -1.18298609962 0.867418995156
H -0.589544015603 -2.24818708474 0.905282486807
H -1.80989977768 -2.8860729524 -0.147273742426
H -3.37468518161 -1.26707062069 1.55252828172
H -2.99186914204 -1.0894294974 -0.120554540953
C -1.37480198323 -4.84584760182 1.5207433066
C -1.95678929431 -3.48183932412 1.93050080676
H -1.72076305764 -5.54319312824 2.27852118022
H -1.83706141858 -5.23050846778 0.594940335422
H -1.56763304413 -3.13646130813 2.90171573543
H -3.02460512711 -3.59352374045 2.06480554535
C 0.861438808546 -6.15113267241 1.08681072498
C 0.180503992381 -4.8205648068 1.42348051327
H 0.0863924115333 -6.87924767667 0.835283548603
H 1.54116888582 -6.02504542256 0.232884499335
H 0.469352826843 -4.17668242064 0.592905669891
H 0.600758897584 -4.36377415177 2.32948098231
C 0.930284670138 -7.09466026353 3.46792436132
C 1.72235819894 -6.73424295536 2.22617774354
H -0.118597316853 -7.03039062933 3.20171150829
H 1.15549859922 -8.13785190594 3.74886372248
H 2.13588925569 -7.6696691925 1.86328587358
H 2.5217742796 -6.02146542997 2.45279456503
C -0.0639815743797 -5.87617204509 5.44947559871
C 1.244150391 -6.21041163277 4.68076120109
H -0.581703047745 -5.08312131057 4.90478542338
H -0.790817127689 -6.69184425207 5.37844022866
H 2.00520470171 -6.75744301204 5.23912265921
H 1.70101575348 -5.26129638209 4.39273847873
C 1.27720997393 -6.09944154207 7.69314670147
C 0.0654297530154 -5.48985367119 6.93581748766
H 1.60646784888 -7.04482444754 7.27502395433
H 1.07337745529 -6.25456250823 8.75254537038
H 0.147178900202 -4.40154892351 7.07289832016
H -0.878030324979 -5.83778139039 7.36637260829
